Version 4.1
SHEET 1 2116 1052
WIRE -352 -112 -624 -112
WIRE 336 -112 -272 -112
WIRE 1040 -112 368 -112
WIRE 1808 -112 1072 -112
WIRE 736 -64 672 -64
WIRE 880 -64 800 -64
WIRE -576 -32 -576 -48
WIRE -432 -32 -432 -48
WIRE 1408 -16 1344 -16
WIRE 1552 -16 1472 -16
WIRE 208 0 -32 0
WIRE 272 0 208 0
WIRE 672 32 672 -64
WIRE 736 32 672 32
WIRE 880 32 880 -64
WIRE 880 32 816 32
WIRE -32 48 -32 0
WIRE -32 48 -160 48
WIRE 64 48 -32 48
WIRE -576 64 -576 48
WIRE -432 64 -432 48
WIRE 1344 80 1344 -16
WIRE 1408 80 1344 80
WIRE 1552 80 1552 -16
WIRE 1552 80 1488 80
WIRE -624 112 -624 -112
WIRE -352 112 -352 -112
WIRE -352 112 -624 112
WIRE -160 112 -160 48
WIRE 528 112 448 112
WIRE 624 112 608 112
WIRE 672 112 672 32
WIRE 672 112 624 112
WIRE 704 112 672 112
WIRE 64 128 64 48
WIRE 880 128 880 32
WIRE 880 128 768 128
WIRE 960 128 880 128
WIRE -32 144 -32 48
WIRE 704 144 672 144
WIRE 1200 160 1168 160
WIRE 1344 160 1344 80
WIRE 1344 160 1280 160
WIRE 1376 160 1344 160
WIRE 208 176 208 0
WIRE 1552 176 1552 80
WIRE 1552 176 1440 176
WIRE 1712 176 1552 176
WIRE 624 192 624 112
WIRE 1376 192 1344 192
WIRE 1216 240 1152 240
WIRE 1344 240 1344 192
WIRE 1344 240 1280 240
WIRE 1344 272 1344 240
WIRE -160 288 -160 192
WIRE -32 288 -32 208
WIRE -32 288 -160 288
WIRE 64 288 64 208
WIRE 64 288 -32 288
WIRE 624 304 624 272
WIRE 672 336 672 144
WIRE 672 336 448 336
WIRE -32 368 -32 288
WIRE 672 368 672 336
WIRE 1344 384 1344 352
WIRE -32 480 -32 432
WIRE 96 480 -32 480
WIRE 208 480 208 256
WIRE 208 480 96 480
WIRE 672 480 672 448
WIRE 96 512 96 480
WIRE -272 560 -272 -112
WIRE 336 560 336 -112
WIRE 336 560 -272 560
WIRE 368 560 368 -112
WIRE 1040 560 1040 -112
WIRE 1040 560 368 560
WIRE 1072 560 1072 -112
WIRE 1808 560 1808 -112
WIRE 1808 560 1072 560
WIRE -288 720 -320 720
WIRE -176 736 -224 736
WIRE -128 736 -176 736
WIRE 416 736 416 704
WIRE 592 736 592 704
WIRE -288 752 -320 752
WIRE 800 752 800 704
WIRE 1296 784 1296 752
WIRE 928 800 880 800
WIRE 1200 800 1152 800
WIRE -448 816 -480 816
WIRE -320 816 -320 752
WIRE -320 816 -368 816
WIRE -320 864 -320 816
WIRE -288 864 -320 864
WIRE -176 864 -176 736
WIRE -176 864 -208 864
WIRE 272 864 224 864
WIRE 416 864 416 816
WIRE 416 864 352 864
WIRE 464 864 416 864
WIRE 592 864 592 816
WIRE 592 864 528 864
WIRE 800 864 800 816
WIRE 800 864 592 864
WIRE 928 864 800 864
WIRE 1200 864 1152 864
WIRE 1200 896 1200 864
WIRE 1296 896 1296 864
WIRE 1296 896 1200 896
WIRE 928 928 880 928
WIRE 1200 928 1200 896
WIRE 1200 928 1152 928
WIRE 1296 928 1296 896
WIRE 928 992 880 992
WIRE 1296 1024 1296 992
FLAG -576 -48 5V
FLAG -576 64 0
FLAG -432 -48 2V5
FLAG -432 64 0
FLAG -256 704 5V
FLAG -256 768 0
FLAG -320 720 2V5
FLAG -480 816 XXSig
FLAG -128 736 CSig
FLAG 1200 800 5V
FLAG 880 800 0
FLAG 880 928 PWM_555
FLAG 880 992 5V
FLAG 416 704 5V
FLAG 592 704 5V
FLAG 800 704 5V
FLAG 224 864 CSig
FLAG 1296 752 5V
FLAG 1296 1024 0
FLAG -32 288 5V
FLAG 96 512 0
FLAG 272 0 Sig
FLAG 960 128 XSig
FLAG 448 112 Sig
FLAG 624 304 0
FLAG 672 480 2V5
FLAG 448 336 Sig
FLAG 736 160 0
FLAG 736 96 5V
FLAG 1344 384 2V5
FLAG 1152 240 XSig
FLAG 1712 176 XXSig
FLAG 1408 144 5V
FLAG 1408 208 0
FLAG 1168 160 2V5
SYMBOL voltage -576 -48 R0
WINDOW 123 0 0 Left 0
WINDOW 39 0 0 Left 0
SYMATTR InstName V1
SYMATTR Value 5
SYMBOL voltage -432 -48 R0
WINDOW 123 0 0 Left 0
WINDOW 39 0 0 Left 0
SYMATTR InstName V2
SYMATTR Value 2.5
SYMBOL OpAmps\\UniversalOpAmp2 -256 736 R0
SYMATTR InstName U3
SYMBOL res -352 800 R90
WINDOW 0 0 56 VBottom 2
WINDOW 3 32 56 VTop 2
SYMATTR InstName R8
SYMATTR Value 10k
SYMBOL res -304 880 R270
WINDOW 0 32 56 VTop 2
WINDOW 3 0 56 VBottom 2
SYMATTR InstName R9
SYMATTR Value 100k
SYMBOL Misc\\NE555 1040 896 R0
SYMATTR InstName U4
SYMBOL res 576 720 R0
SYMATTR InstName R10
SYMATTR Value 100Meg
SYMBOL cap 528 848 R90
WINDOW 0 0 32 VBottom 2
WINDOW 3 32 32 VTop 2
SYMATTR InstName C5
SYMATTR Value 100nF
SYMBOL res 400 720 R0
SYMATTR InstName R11
SYMATTR Value 100Meg
SYMBOL res 368 848 R90
WINDOW 0 0 56 VBottom 2
WINDOW 3 32 56 VTop 2
SYMATTR InstName R12
SYMATTR Value 100
SYMBOL res 1280 768 R0
SYMATTR InstName R13
SYMATTR Value 1k
SYMBOL cap 1280 928 R0
SYMATTR InstName C6
SYMATTR Value 100n
SYMBOL current -160 192 R180
WINDOW 3 72 -155 VRight 2
WINDOW 123 0 0 Left 0
WINDOW 39 0 0 Left 0
SYMATTR Value PULSE(5n 9u 0 1n 1n 10u 0.1m)
SYMATTR InstName I2
SYMBOL cap -48 144 R0
SYMATTR InstName C7
SYMATTR Value 4.5p
SYMBOL res 48 112 R0
SYMATTR InstName R14
SYMATTR Value 4G
SYMBOL cap -48 368 R0
SYMATTR InstName C8
SYMATTR Value 100n
SYMBOL res 192 160 R0
SYMATTR InstName R15
SYMATTR Value 47k
SYMBOL OpAmps\\UniversalOpAmp2 736 128 R0
SYMATTR InstName U5
SYMBOL res 832 16 R90
WINDOW 0 0 56 VBottom 2
WINDOW 3 32 56 VTop 2
SYMATTR InstName R1
SYMATTR Value 1k
SYMBOL cap 800 -80 R90
WINDOW 0 0 32 VBottom 2
WINDOW 3 32 32 VTop 2
SYMATTR InstName C1
SYMATTR Value 10p
SYMBOL res 608 176 R0
SYMATTR InstName R2
SYMATTR Value 1.5k
SYMBOL res 656 352 R0
SYMATTR InstName R16
SYMATTR Value 390k
SYMBOL res 624 96 R90
WINDOW 0 0 56 VBottom 2
WINDOW 3 32 56 VTop 2
SYMATTR InstName R17
SYMATTR Value 100k
SYMBOL OpAmps\\UniversalOpAmp2 1408 176 R0
SYMATTR InstName U1
SYMBOL res 1328 256 R0
SYMATTR InstName R3
SYMATTR Value 10k
SYMBOL cap 1280 224 R90
WINDOW 0 0 32 VBottom 2
WINDOW 3 32 32 VTop 2
SYMATTR InstName C2
SYMATTR Value 156n
SYMBOL res 1504 64 R90
WINDOW 0 0 56 VBottom 2
WINDOW 3 32 56 VTop 2
SYMATTR InstName R4
SYMATTR Value 10k
SYMBOL cap 1472 -32 R90
WINDOW 0 0 32 VBottom 2
WINDOW 3 32 32 VTop 2
SYMATTR InstName C4
SYMATTR Value 120p
SYMBOL res 1296 144 R90
WINDOW 0 0 56 VBottom 2
WINDOW 3 32 56 VTop 2
SYMATTR InstName R18
SYMATTR Value 470k
TEXT -32 -144 Left 2 ;Light Detection
TEXT 640 -144 Left 2 ;Vsig --> Vxsig
TEXT -576 152 Left 2 !.tran 0 1m 0 1u
TEXT 1360 -160 Left 2 ;XSig --> XXSig
