Version 4.1
SHEET 1 1796 956
WIRE -512 -144 -512 -160
WIRE -368 -144 -368 -160
WIRE -512 -48 -512 -64
WIRE -368 -48 -368 -64
WIRE 720 -32 688 -32
WIRE 832 -32 784 -32
WIRE 1408 -32 1376 -32
WIRE 1536 -32 1488 -32
WIRE 1568 -32 1536 -32
WIRE 1680 -32 1648 -32
WIRE -128 0 -240 0
WIRE -32 0 -128 0
WIRE 96 0 -32 0
WIRE 128 0 96 0
WIRE -240 32 -240 0
WIRE -128 32 -128 0
WIRE -32 32 -32 0
WIRE 688 64 688 -32
WIRE 720 64 688 64
WIRE 832 64 832 -32
WIRE 832 64 800 64
WIRE 1536 64 1536 -32
WIRE 1568 64 1536 64
WIRE 1680 80 1680 -32
WIRE 1680 80 1632 80
WIRE 1712 80 1680 80
WIRE 1568 96 1536 96
WIRE 96 128 96 0
WIRE -240 144 -240 112
WIRE -240 144 -288 144
WIRE -128 144 -128 96
WIRE -128 144 -240 144
WIRE -32 144 -32 112
WIRE -32 144 -128 144
WIRE 1344 144 1312 144
WIRE 1456 144 1408 144
WIRE 1536 144 1536 96
WIRE 1536 144 1456 144
WIRE 560 176 528 176
WIRE 688 176 688 64
WIRE 688 176 640 176
WIRE 720 176 688 176
WIRE 1456 176 1456 144
WIRE -240 192 -240 144
WIRE 832 192 832 64
WIRE 832 192 784 192
WIRE 880 192 832 192
WIRE 720 208 688 208
WIRE 688 256 688 208
WIRE 688 256 640 256
WIRE -240 288 -240 256
WIRE 96 288 96 208
WIRE 96 288 -240 288
WIRE 1456 288 1456 256
WIRE -240 336 -240 288
WIRE 416 640 416 608
WIRE 592 640 592 608
WIRE -288 656 -320 656
WIRE 800 656 800 608
WIRE -176 672 -224 672
WIRE -128 672 -176 672
WIRE -288 688 -320 688
WIRE 1296 688 1296 656
WIRE 928 704 880 704
WIRE 1200 704 1152 704
WIRE -448 752 -480 752
WIRE -320 752 -320 688
WIRE -320 752 -368 752
WIRE 272 768 224 768
WIRE 416 768 416 720
WIRE 416 768 352 768
WIRE 464 768 416 768
WIRE 592 768 592 720
WIRE 592 768 528 768
WIRE 800 768 800 720
WIRE 800 768 592 768
WIRE 928 768 800 768
WIRE 1200 768 1152 768
WIRE -320 800 -320 752
WIRE -288 800 -320 800
WIRE -176 800 -176 672
WIRE -176 800 -208 800
WIRE 1200 800 1200 768
WIRE 1296 800 1296 768
WIRE 1296 800 1200 800
WIRE 928 832 880 832
WIRE 1200 832 1200 800
WIRE 1200 832 1152 832
WIRE 1296 832 1296 800
WIRE 928 896 880 896
WIRE 1296 928 1296 896
FLAG -512 -160 5V
FLAG -512 -48 0
FLAG -368 -160 2V5
FLAG -368 -48 0
FLAG -288 144 5V
FLAG -240 336 0
FLAG 752 224 0
FLAG 752 160 5V
FLAG 128 0 Sig
FLAG 1456 288 2V5
FLAG 1376 -32 2V5
FLAG 880 192 XSig
FLAG 1312 144 XSig
FLAG 1712 80 XXSig
FLAG 1600 112 0
FLAG 1600 48 5V
FLAG -256 640 5V
FLAG -256 704 0
FLAG -320 656 2V5
FLAG -480 752 XXSig
FLAG -128 672 CSig
FLAG 528 176 0
FLAG 640 256 Sig
FLAG 1200 704 5V
FLAG 880 704 0
FLAG 880 832 PWM_555
FLAG 880 896 5V
FLAG 416 608 5V
FLAG 592 608 5V
FLAG 800 608 5V
FLAG 224 768 CSig
FLAG 1296 656 5V
FLAG 1296 928 0
SYMBOL OpAmps\\UniversalOpAmp2 752 192 R0
SYMATTR InstName U1
SYMBOL voltage -512 -160 R0
WINDOW 123 0 0 Left 0
WINDOW 39 0 0 Left 0
SYMATTR InstName V1
SYMATTR Value 5
SYMBOL voltage -368 -160 R0
WINDOW 123 0 0 Left 0
WINDOW 39 0 0 Left 0
SYMATTR InstName V2
SYMATTR Value 2.5
SYMBOL current -240 112 R180
WINDOW 3 38 44 Left 2
WINDOW 123 0 0 Left 0
WINDOW 39 0 0 Left 0
SYMATTR Value PULSE(5n 9u 0 1n 1n 10u 100u)
SYMATTR InstName I1
SYMBOL cap -144 32 R0
SYMATTR InstName C1
SYMATTR Value 4.5p
SYMBOL res -48 16 R0
SYMATTR InstName R1
SYMATTR Value 4G
SYMBOL cap -256 192 R0
SYMATTR InstName C2
SYMATTR Value 100n
SYMBOL res 80 112 R0
SYMATTR InstName R2
SYMATTR Value 10k
SYMBOL res 656 160 R90
WINDOW 0 0 56 VBottom 2
WINDOW 3 32 56 VTop 2
SYMATTR InstName R3
SYMATTR Value 1k
SYMBOL res 816 48 R90
WINDOW 0 0 56 VBottom 2
WINDOW 3 32 56 VTop 2
SYMATTR InstName R4
SYMATTR Value 5.6k
SYMBOL OpAmps\\UniversalOpAmp2 1600 80 R0
SYMATTR InstName U2
SYMBOL cap 1408 128 R90
WINDOW 0 0 32 VBottom 2
WINDOW 3 32 32 VTop 2
SYMATTR InstName C3
SYMATTR Value 10n
SYMBOL res 1440 160 R0
SYMATTR InstName R5
SYMATTR Value 160k
SYMBOL cap 784 -48 R90
WINDOW 0 0 32 VBottom 2
WINDOW 3 32 32 VTop 2
SYMATTR InstName C4
SYMATTR Value 20p
SYMBOL res 1664 -48 R90
WINDOW 0 0 56 VBottom 2
WINDOW 3 32 56 VTop 2
SYMATTR InstName R6
SYMATTR Value 5.6k
SYMBOL res 1392 -16 R270
WINDOW 0 32 56 VTop 2
WINDOW 3 0 56 VBottom 2
SYMATTR InstName R7
SYMATTR Value 1k
SYMBOL OpAmps\\UniversalOpAmp2 -256 672 R0
SYMATTR InstName U3
SYMBOL res -352 736 R90
WINDOW 0 0 56 VBottom 2
WINDOW 3 32 56 VTop 2
SYMATTR InstName R8
SYMATTR Value 10k
SYMBOL res -304 816 R270
WINDOW 0 32 56 VTop 2
WINDOW 3 0 56 VBottom 2
SYMATTR InstName R9
SYMATTR Value 100k
SYMBOL Misc\\NE555 1040 800 R0
SYMATTR InstName U4
SYMBOL res 576 624 R0
SYMATTR InstName R10
SYMATTR Value 100Meg
SYMBOL cap 528 752 R90
WINDOW 0 0 32 VBottom 2
WINDOW 3 32 32 VTop 2
SYMATTR InstName C5
SYMATTR Value 100nF
SYMBOL res 400 624 R0
SYMATTR InstName R11
SYMATTR Value 100Meg
SYMBOL res 368 752 R90
WINDOW 0 0 56 VBottom 2
WINDOW 3 32 56 VTop 2
SYMATTR InstName R12
SYMATTR Value 100
SYMBOL res 1280 672 R0
SYMATTR InstName R13
SYMATTR Value 1k
SYMBOL cap 1280 832 R0
SYMATTR InstName C6
SYMATTR Value 100n
TEXT -624 312 Left 2 !.tran 0 60m 50m
