[Format]      =  1
[Precision]   =  1e-008
[MinAngle]    =  30
[DoSmartMesh] =  1
[Depth]       =  2250
[LengthUnits] =  millimeters
[ProblemType] =  planar
[Coordinates] =  cartesian
[Comment]     =  "Add comments here."
[PointProps]   = 0
[BdryProps]   = 1
  <BeginBdry>
    <BdryName> = "BOUNDARY"
    <BdryType> = 0
    <Vs> = 0
    <qs> = 0
    <c0> = 0
    <c1> = 0
  <EndBdry>
[BlockProps]  = 4
  <BeginBlock>
    <BlockName> = "DIELECTRIC"
    <ex> = 2.5
    <ey> = 2.5
    <qv> = 0
  <EndBlock>
  <BeginBlock>
    <BlockName> = "WATER"
    <ex> = 80
    <ey> = 80
    <qv> = 0
  <EndBlock>
  <BeginBlock>
    <BlockName> = "CONDUCTOR"
    <ex> = 1000000
    <ey> = 1000000
    <qv> = 0
  <EndBlock>
  <BeginBlock>
    <BlockName> = "AIR"
    <ex> = 1
    <ey> = 1
    <qv> = 0
  <EndBlock>
[ConductorProps]  = 2
  <BeginConductor>
    <ConductorName> = "+5V"
    <Vc> = 5
    <qc> = 0
    <ConductorType> = 1
  <EndConductor>
  <BeginConductor>
    <ConductorName> = "0V"
    <Vc> = 0
    <qc> = 0
    <ConductorType> = 1
  <EndConductor>
[NumPoints] = 44
0.5	8.5	0	0	0
0.5	2	0	0	0
2	0.5	0	0	0
8.5	0.5	0	0	0
-0.5	8.5	0	0	0
-0.5	2	0	0	0
-8.5	0.5	0	0	0
-2	0.5	0	0	0
2	-0.5	0	0	0
8.5	-0.5	0	0	0
-8.5	-0.5	0	0	0
-2	-0.5	0	0	0
-0.5	-2	0	0	0
-0.5	-8.5	0	0	0
0.5	-2	0	0	0
0.5	-8.5	0	0	0
1.0000000000000002	2.4651903288156619e-032	0	0	0
6.1232339957367673e-017	1	0	0	0
10	0	0	0	0
1.0564126094237399e-015	10	0	0	0
9.0000000000000018	1	0	0	0
1.0000000000000002	9	0	0	0
9.5000000000000018	1.9721522630525295e-031	0	0	0
5.8170722959499284e-016	9.5	0	0	0
9.7500000000000018	1.9721522630525295e-031	0	0	0
5.9701531458433483e-016	9.75	0	0	0
-10	-5.5171004025289701e-016	0	0	0
-9.5	1.1634144591899857e-015	0	0	0
-9.75	1.1940306291686697e-015	0	0	0
-0.99999999999999822	9.0000000000000018	0	0	0
-9	1.0000000000000044	0	0	0
-1	1.2246467991473535e-016	0	0	0
-3.6133270381212808e-015	-10	0	0	0
0.99999999999999722	-9.0000000000000018	0	0	0
9	-1.0000000000000018	0	0	0
-2.6333001084851039e-015	-9.5000000000000018	0	0	0
-2.6792243634531295e-015	-9.7500000000000018	0	0	0
-9.0000000000000018	-1.0000000000000016	0	0	0
-1.0000000000000089	-9	0	0	0
-2.9471932233461867e-016	-1.0000000000000002	0	0	0
0	100	0	0	0
100	0	0	0	0
0	-100	0	0	0
-100	0	0	0	0
[NumSegments] = 8
0	1	-1	0	0	0	0
2	3	-1	0	0	0	0
4	5	-1	0	0	0	0
6	7	-1	0	0	0	0
8	9	-1	0	0	0	0
10	11	-1	0	0	0	0
12	13	-1	0	0	0	0
14	15	-1	0	0	0	0
[NumArcSegments] = 36
16	17	90	5	0	0	0	1	5
18	19	89.999999999999972	5	0	0	0	0	5
20	21	83.000000000000014	5	0	0	0	0	5
21	0	50.000000000000057	5	0	0	0	0	5
3	20	50	5	0	0	0	0	5
22	23	90	5	0	0	0	2	5
24	25	90	5	0	0	0	2	5
19	26	89.999999999999986	5	0	0	0	0	5
23	27	89.999999999999986	5	0	0	0	2	5
25	28	89.999999999999986	5	0	0	0	2	5
29	30	83.000000000000014	5	0	0	0	0	5
4	29	50.000000000000028	5	0	0	0	0	5
30	6	50.000000000000028	5	0	0	0	0	5
17	31	89.999999999999986	5	0	0	0	1	5
32	18	90	5	0	0	0	0	5
33	34	83	5	0	0	0	0	5
35	22	90	5	0	0	0	2	5
36	24	90	5	0	0	0	2	5
26	32	90	5	0	0	0	0	5
27	35	90	5	0	0	0	2	5
28	36	90	5	0	0	0	2	5
37	38	83	5	0	0	0	0	5
34	9	50.000000000000021	5	0	0	0	0	5
10	37	50.000000000000028	5	0	0	0	0	5
15	33	50.000000000000057	5	0	0	0	0	5
38	13	50.000000000000057	5	0	0	0	0	5
1	2	65	5	0	0	0	0	5
7	5	65	5	0	0	0	0	5
39	16	90	5	0	0	0	1	5
31	39	90	5	0	0	0	1	5
8	14	64.999999999999986	5	0	0	0	0	5
12	11	65	5	0	0	0	0	5
40	43	90	1	1	0	0	0	1
43	42	90	1	1	0	0	0	1
42	41	90	1	1	0	0	0	1
41	40	90	1	1	0	0	0	1
[NumHoles] = 0
[NumBlockLabels] = 9
-0.01	0.040000000000000001	3	-1	0	0
5.5099999999999998	0.12	1	-1	0	0
4.4900000000000002	3.96	4	-1	0	0
-4.3300000000000001	3.7999999999999998	4	-1	0	0
-4.0899999999999999	-3.8199999999999998	4	-1	0	0
5.1699999999999999	-3.6200000000000001	4	-1	0	0
9.5700000000000003	0.66000000000000003	3	-1	0	0
9.6300000000000008	2.1000000000000001	1	-1	0	0
9.8499999999999996	4.2400000000000002	4	-1	0	0
